 18

      O        -0.067054        -2.358683          0.000000
      C         0.278988        -1.023328         -0.000000
      C        -0.190439        -0.314644         -1.258209
      C        -0.190439        -0.314644          1.258209
      C         0.221191         1.148702         -1.252943
      C         0.221191         1.148702          1.252943
      C        -0.265826         1.857326         -0.000000
      H         1.374656        -1.054183          0.000000
      H        -1.275702        -0.391932         -1.309102
      H        -1.275702        -0.391932          1.309102
      H         0.205274        -0.830490         -2.127807
      H         0.205274        -0.830490          2.127807
      H         1.307962         1.217053         -1.303832
      H         1.307962         1.217053          1.303832
      H        -0.160148         1.643839         -2.141259
      H        -0.160148         1.643839          2.141259
      H        -1.355309         1.880225          0.000000
      H         0.067498         2.891415          0.000000
