 18

      O        -0.087727        -2.364241         -0.000000
      C         0.287816        -1.090416          0.000000
      C        -0.193906        -0.315479         -1.242505
      C        -0.193906        -0.315479          1.242505
      C         0.219022         1.148889         -1.252791
      C         0.219022         1.148889          1.252791
      C        -0.258668         1.865653          0.000000
      H         1.403470        -0.948603         -0.000000
      H        -1.282148        -0.396362         -1.274431
      H        -1.282148        -0.396362          1.274431
      H         0.184632        -0.829282         -2.124063
      H         0.184632        -0.829282          2.124063
      H         1.307569         1.216526         -1.300962
      H         1.307569         1.216526          1.300962
      H        -0.159730         1.659365         -2.140168
      H        -0.159730         1.659365          2.140168
      H        -1.349799         1.889253         -0.000000
      H         0.076134         2.904040         -0.000000
